Stray ".ends" card: .ends
Circuit: * C:\Users\iroch\OneDrive\Desktop\School_Stuff\ECE2804_IntegratedDesignProject\converter.asc

Limiting rise time of source v§pwm to 1.45e-006
Limiting fall time of source v§pwm to 1.45e-006
Direct Newton iteration for .op point succeeded.

Date: Tue Aug 10 20:48:06 2021
Total elapsed time: 0.657 seconds.

tnom = 27
temp = 27
method = modified trap
totiter = 367351
traniter = 367347
tranpoints = 114460
accept = 80301
rejected = 34159
matrix size = 9
fillins = 0
solver = Normal
Matrix Compiler1:      20 opcodes  0.1/[0.0]/0.1
Matrix Compiler2: 627 bytes object code size  0.1/0.1/[0.0]

