Circuit: * C:\Users\iroch\OneDrive\Desktop\School_Stuff\ECE2804_IntegratedDesignProject\review_files\review_amps.asc

WARNING: Node U2:3 is floating.
WARNING: Node U2:11 is floating.

Direct Newton iteration for .op point succeeded.

Date: Thu Aug 05 14:08:50 2021
Total elapsed time: 0.134 seconds.

tnom = 27
temp = 27
method = modified trap
totiter = 4337
traniter = 4296
tranpoints = 1461
accept = 1353
rejected = 108
matrix size = 71
fillins = 163
solver = Normal
Matrix Compiler1: 14.03 KB object code size  2.2/1.3/[0.6]
Matrix Compiler2: off  [0.6]/1.2/0.9

