Circuit: * C:\Users\iroch\OneDrive\Desktop\School_Stuff\ECE2804_IntegratedDesignProject\review_filter_lowPass.asc


Date: Tue Jul 13 17:59:47 2021
Total elapsed time: 0.049 seconds.

tnom = 27
temp = 27
method = trap
totiter = 0
traniter = 0
tranpoints = 0
accept = 0
rejected = 0
matrix size = 3
fillins = 0
solver = Normal

